14

C 6.71454 -5.53848 -3.50851
C 6.95865 -6.22697 -2.15264
C 8.16747 -5.57632 -1.45606
C 5.50518 -6.19016 -4.20589
H 5.33617 -5.71137 -5.14853
H 7.58263 -5.64795 -4.12498
H 6.51851 -4.49883 -3.35011
H 6.09092 -6.11832 -1.53660
H 5.70232 -7.22908 -4.36475
H 7.15558 -7.26640 -2.31068
H 8.33668 -6.05459 -0.51425
H 7.97144 -4.53667 -1.29765
H 4.63745 -6.08152 -3.58986
H 9.03610 -5.68475 -2.07173
