60

H         -4.44446       -2.75647       -0.07844
C          1.26657        0.87700        0.07654
H         -1.12061        2.35317        0.27644
Cl         1.04122       -4.26315       -3.35526
C         -3.72480       -0.70099        0.34587
C          1.36984       -1.84122        1.49991
O         -2.37153       -3.47199        0.37170
H          1.65960        0.87608        1.10101
C         -3.19991        1.83222        0.28562
H          3.20176       -3.48612       -2.76131
F         -2.15565       -1.04949       -1.37050
C          1.83353       -1.91555       -2.25053
C         -4.91556        0.94081       -1.22676
C          0.13575       -0.10993       -0.12949
C         -1.56781       -2.31821        0.51624
H         -5.76051       -2.27801       -2.07479
C          0.83078       -1.48961        0.09212
H          0.58145       -2.06385        2.22324
C         -4.73745       -1.72410       -0.26329
H          2.17663       -3.85144       -1.35006
C         -5.01048       -1.54749       -1.74904
H         -1.40018       -2.22871        1.59330
H         -4.11593       -1.69079       -2.36672
C         -1.25156        0.17177        0.45314
H          0.14553       -3.57657        0.00398
H          6.14650       -1.61043       -0.66275
H          6.20691        0.16890       -0.65884
C          5.62837       -0.70432       -0.33510
H         -1.66658        1.54520       -1.18519
C         -0.22546       -2.57192       -0.23279
O         -6.41409        0.08546       -2.81526
C          2.19862       -3.38801       -2.33974
C         -1.75347        1.53562       -0.08760
H          1.97834       -2.75581        1.43427
O          3.37055       -1.69865       -0.44514
H          2.03391        0.70716       -1.92570
H         -3.30675        1.95111        1.36751
H         -1.19055        0.22450        1.54623
H          4.32518       -0.72947       -2.01355
C         -3.95011       -0.72633        1.87504
H          5.60269       -0.70222        0.75725
O          1.40013       -1.27355       -3.20765
H          1.02038        1.91229       -0.16735
H         -0.44948       -2.59510       -1.30509
H         -3.49141        2.79051       -0.16408
H         -5.70260       -1.61226        0.25697
O          3.59644        0.57207       -0.60786
H         -3.88909       -1.74894        2.26332
C         -5.54936       -0.16423       -1.97904
H         -2.45123       -3.65806       -0.58518
H         -0.07639       -0.06802       -1.21337
C          4.23872       -0.65277       -0.91963
H         -4.94170       -0.33735        2.13760
C         -4.05154        0.69959       -0.22230
C         -2.21539       -0.99435        0.00855
C          2.06569       -1.26254       -0.87928
C          2.24505        0.28884       -0.93418
H          2.00545       -1.06940        1.93606
H         -5.10497        1.93027       -1.62833
H         -3.21469       -0.12898        2.42092
